 INFO
nunit      6    6    1
unit   cell
celltype   primcell
shape   parapipedal
 END_INFO
 DIM-GROUP
           2           1
 PRIMVEC
    2.4699992650    0.0000000000    0.0000000000
   -1.2349996330    2.1390811140    0.0000000000
    0.0000000000    0.0000000000    1.0000000000
 CONVVEC
    2.4699992650    0.0000000000    0.0000000000
   -1.2349996330    2.1390811140    0.0000000000
    0.0000000000    0.0000000000    1.0000000000
 PRIMCOORD
           2           1
  6      1.2349996330     0.7130272850     0.0000000000     0.0000000000     0.0000000000     0.0000000000
  6     -0.0000000000     1.4260548170     0.0000000000     0.0000000000     0.0000000000     0.0000000000
 CONVCOORD
           2           1
  6      1.2349996330     0.7130272850     0.0000000000
  6      0.0000000000     1.4260548170     0.0000000000
 RECIP-PRIMVEC
    0.4048584201    0.2337452268   -0.0000000000

    0.0000000000    0.4674904535    0.0000000000

    0.0000000000    0.0000000000    1.0000000000

 RECIP-CONVVEC
    0.4048584201    0.2337452268   -0.0000000000

    0.0000000000    0.4674904535    0.0000000000

    0.0000000000    0.0000000000    1.0000000000

 WIGNER-SEITZ-PRIMCELL
           6
  0.4999998E-09 -0.1426054E+01  0.0000000E+00  -0.0000000E+00 -0.0000000E+00  0.1000000E+01
  0.1235000E+01 -0.7130267E+00  0.0000000E+00  -0.0000000E+00 -0.0000000E+00  0.1000000E+01
  0.1235000E+01  0.7130267E+00  0.0000000E+00  -0.0000000E+00 -0.0000000E+00  0.1000000E+01
 -0.4999998E-09  0.1426054E+01  0.0000000E+00  -0.0000000E+00 -0.0000000E+00  0.1000000E+01
 -0.1235000E+01  0.7130267E+00  0.0000000E+00  -0.0000000E+00 -0.0000000E+00  0.1000000E+01
 -0.1235000E+01 -0.7130267E+00  0.0000000E+00  -0.0000000E+00 -0.0000000E+00  0.1000000E+01
 WIGNER-SEITZ-PRIMCELL_END
 BRILLOUIN-ZONE-PRIMCELL
           6
 -0.1349527E+00 -0.2337452E+00  0.0000000E+00  -0.0000000E+00 -0.0000000E+00  0.1000000E+01
  0.1349527E+00 -0.2337452E+00  0.0000000E+00  -0.0000000E+00 -0.0000000E+00  0.1000000E+01
  0.2699057E+00  0.9463372E-10  0.0000000E+00  -0.0000000E+00 -0.0000000E+00  0.1000000E+01
  0.1349527E+00  0.2337452E+00  0.0000000E+00  -0.0000000E+00 -0.0000000E+00  0.1000000E+01
 -0.1349527E+00  0.2337452E+00  0.0000000E+00  -0.0000000E+00 -0.0000000E+00  0.1000000E+01
 -0.2699057E+00 -0.9463372E-10  0.0000000E+00  -0.0000000E+00 -0.0000000E+00  0.1000000E+01
 BRILLOUIN-ZONE-PRIMCELL_END
 ATOMS
    6    1.2349996330    0.7130272850    0.0000000000    0.0000000000    0.0000000000    0.0000000000
    6    0.0000000000    1.4260548170    0.0000000000    0.0000000000    0.0000000000    0.0000000000
    6    0.0000000000    2.8521083990    0.0000000000    0.0000000000    0.0000000000    0.0000000000
    6   -1.2349996330    3.5651359310    0.0000000000    0.0000000000    0.0000000000    0.0000000000
    6   -1.2349996330    4.9911895130    0.0000000000    0.0000000000    0.0000000000    0.0000000000
    6   -2.4699992660    5.7042170450    0.0000000000    0.0000000000    0.0000000000    0.0000000000
    6   -2.4699992660    7.1302706270    0.0000000000    0.0000000000    0.0000000000    0.0000000000
    6   -3.7049988990    7.8432981590    0.0000000000    0.0000000000    0.0000000000    0.0000000000
    6   -3.7049988990    9.2693517410    0.0000000000    0.0000000000    0.0000000000    0.0000000000
    6   -4.9399985320    9.9823792730    0.0000000000    0.0000000000    0.0000000000    0.0000000000
    6   -4.9399985320   11.4084328550    0.0000000000    0.0000000000    0.0000000000    0.0000000000
    6   -6.1749981650   12.1214603870    0.0000000000    0.0000000000    0.0000000000    0.0000000000
    6    3.7049988980    0.7130272850    0.0000000000    0.0000000000    0.0000000000    0.0000000000
    6    2.4699992650    1.4260548170    0.0000000000    0.0000000000    0.0000000000    0.0000000000
    6    2.4699992650    2.8521083990    0.0000000000    0.0000000000    0.0000000000    0.0000000000
    6    1.2349996320    3.5651359310    0.0000000000    0.0000000000    0.0000000000    0.0000000000
    6    1.2349996320    4.9911895130    0.0000000000    0.0000000000    0.0000000000    0.0000000000
    6   -0.0000000010    5.7042170450    0.0000000000    0.0000000000    0.0000000000    0.0000000000
    6   -0.0000000010    7.1302706270    0.0000000000    0.0000000000    0.0000000000    0.0000000000
    6   -1.2349996340    7.8432981590    0.0000000000    0.0000000000    0.0000000000    0.0000000000
    6   -1.2349996340    9.2693517410    0.0000000000    0.0000000000    0.0000000000    0.0000000000
    6   -2.4699992670    9.9823792730    0.0000000000    0.0000000000    0.0000000000    0.0000000000
    6   -2.4699992670   11.4084328550    0.0000000000    0.0000000000    0.0000000000    0.0000000000
    6   -3.7049989000   12.1214603870    0.0000000000    0.0000000000    0.0000000000    0.0000000000
    6    6.1749981630    0.7130272850    0.0000000000    0.0000000000    0.0000000000    0.0000000000
    6    4.9399985300    1.4260548170    0.0000000000    0.0000000000    0.0000000000    0.0000000000
    6    4.9399985300    2.8521083990    0.0000000000    0.0000000000    0.0000000000    0.0000000000
    6    3.7049988970    3.5651359310    0.0000000000    0.0000000000    0.0000000000    0.0000000000
    6    3.7049988970    4.9911895130    0.0000000000    0.0000000000    0.0000000000    0.0000000000
    6    2.4699992640    5.7042170450    0.0000000000    0.0000000000    0.0000000000    0.0000000000
    6    2.4699992640    7.1302706270    0.0000000000    0.0000000000    0.0000000000    0.0000000000
    6    1.2349996310    7.8432981590    0.0000000000    0.0000000000    0.0000000000    0.0000000000
    6    1.2349996310    9.2693517410    0.0000000000    0.0000000000    0.0000000000    0.0000000000
    6   -0.0000000020    9.9823792730    0.0000000000    0.0000000000    0.0000000000    0.0000000000
    6   -0.0000000020   11.4084328550    0.0000000000    0.0000000000    0.0000000000    0.0000000000
    6   -1.2349996350   12.1214603870    0.0000000000    0.0000000000    0.0000000000    0.0000000000
    6    8.6449974280    0.7130272850    0.0000000000    0.0000000000    0.0000000000    0.0000000000
    6    7.4099977950    1.4260548170    0.0000000000    0.0000000000    0.0000000000    0.0000000000
    6    7.4099977950    2.8521083990    0.0000000000    0.0000000000    0.0000000000    0.0000000000
    6    6.1749981620    3.5651359310    0.0000000000    0.0000000000    0.0000000000    0.0000000000
    6    6.1749981620    4.9911895130    0.0000000000    0.0000000000    0.0000000000    0.0000000000
    6    4.9399985290    5.7042170450    0.0000000000    0.0000000000    0.0000000000    0.0000000000
    6    4.9399985290    7.1302706270    0.0000000000    0.0000000000    0.0000000000    0.0000000000
    6    3.7049988960    7.8432981590    0.0000000000    0.0000000000    0.0000000000    0.0000000000
    6    3.7049988960    9.2693517410    0.0000000000    0.0000000000    0.0000000000    0.0000000000
    6    2.4699992630    9.9823792730    0.0000000000    0.0000000000    0.0000000000    0.0000000000
    6    2.4699992630   11.4084328550    0.0000000000    0.0000000000    0.0000000000    0.0000000000
    6    1.2349996300   12.1214603870    0.0000000000    0.0000000000    0.0000000000    0.0000000000
    6   11.1149966930    0.7130272850    0.0000000000    0.0000000000    0.0000000000    0.0000000000
    6    9.8799970600    1.4260548170    0.0000000000    0.0000000000    0.0000000000    0.0000000000
    6    9.8799970600    2.8521083990    0.0000000000    0.0000000000    0.0000000000    0.0000000000
    6    8.6449974270    3.5651359310    0.0000000000    0.0000000000    0.0000000000    0.0000000000
    6    8.6449974270    4.9911895130    0.0000000000    0.0000000000    0.0000000000    0.0000000000
    6    7.4099977940    5.7042170450    0.0000000000    0.0000000000    0.0000000000    0.0000000000
    6    7.4099977940    7.1302706270    0.0000000000    0.0000000000    0.0000000000    0.0000000000
    6    6.1749981610    7.8432981590    0.0000000000    0.0000000000    0.0000000000    0.0000000000
    6    6.1749981610    9.2693517410    0.0000000000    0.0000000000    0.0000000000    0.0000000000
    6    4.9399985280    9.9823792730    0.0000000000    0.0000000000    0.0000000000    0.0000000000
    6    4.9399985280   11.4084328550    0.0000000000    0.0000000000    0.0000000000    0.0000000000
    6    3.7049988950   12.1214603870    0.0000000000    0.0000000000    0.0000000000    0.0000000000
    6   13.5849959580    0.7130272850    0.0000000000    0.0000000000    0.0000000000    0.0000000000
    6   12.3499963250    1.4260548170    0.0000000000    0.0000000000    0.0000000000    0.0000000000
    6   12.3499963250    2.8521083990    0.0000000000    0.0000000000    0.0000000000    0.0000000000
    6   11.1149966920    3.5651359310    0.0000000000    0.0000000000    0.0000000000    0.0000000000
    6   11.1149966920    4.9911895130    0.0000000000    0.0000000000    0.0000000000    0.0000000000
    6    9.8799970590    5.7042170450    0.0000000000    0.0000000000    0.0000000000    0.0000000000
    6    9.8799970590    7.1302706270    0.0000000000    0.0000000000    0.0000000000    0.0000000000
    6    8.6449974260    7.8432981590    0.0000000000    0.0000000000    0.0000000000    0.0000000000
    6    8.6449974260    9.2693517410    0.0000000000    0.0000000000    0.0000000000    0.0000000000
    6    7.4099977930    9.9823792730    0.0000000000    0.0000000000    0.0000000000    0.0000000000
    6    7.4099977930   11.4084328550    0.0000000000    0.0000000000    0.0000000000    0.0000000000
    6    6.1749981600   12.1214603870    0.0000000000    0.0000000000    0.0000000000    0.0000000000
 FRAMES
1      0.0000000000    0.0000000000    0.0000000000      2.4699992650    0.0000000000    0.0000000000
1      0.0000000000    0.0000000000    0.0000000000     -1.2349996330    2.1390811140    0.0000000000
1     -1.2349996330    2.1390811140    0.0000000000      1.2349996320    2.1390811140    0.0000000000
1     -1.2349996330    2.1390811140    0.0000000000     -2.4699992660    4.2781622280    0.0000000000
1     -2.4699992660    4.2781622280    0.0000000000     -0.0000000010    4.2781622280    0.0000000000
1     -2.4699992660    4.2781622280    0.0000000000     -3.7049988990    6.4172433420    0.0000000000
1     -3.7049988990    6.4172433420    0.0000000000     -1.2349996340    6.4172433420    0.0000000000
1     -3.7049988990    6.4172433420    0.0000000000     -4.9399985320    8.5563244560    0.0000000000
1     -4.9399985320    8.5563244560    0.0000000000     -2.4699992670    8.5563244560    0.0000000000
1     -4.9399985320    8.5563244560    0.0000000000     -6.1749981650   10.6954055700    0.0000000000
1     -6.1749981650   10.6954055700    0.0000000000     -3.7049989000   10.6954055700    0.0000000000
1     -6.1749981650   10.6954055700    0.0000000000     -7.4099977980   12.8344866840    0.0000000000
1     -7.4099977980   12.8344866840    0.0000000000     -4.9399985330   12.8344866840    0.0000000000
1      2.4699992650    0.0000000000    0.0000000000      4.9399985300    0.0000000000    0.0000000000
1      2.4699992650    0.0000000000    0.0000000000      1.2349996320    2.1390811140    0.0000000000
1      1.2349996320    2.1390811140    0.0000000000      3.7049988970    2.1390811140    0.0000000000
1      1.2349996320    2.1390811140    0.0000000000     -0.0000000010    4.2781622280    0.0000000000
1     -0.0000000010    4.2781622280    0.0000000000      2.4699992640    4.2781622280    0.0000000000
1     -0.0000000010    4.2781622280    0.0000000000     -1.2349996340    6.4172433420    0.0000000000
1     -1.2349996340    6.4172433420    0.0000000000      1.2349996310    6.4172433420    0.0000000000
1     -1.2349996340    6.4172433420    0.0000000000     -2.4699992670    8.5563244560    0.0000000000
1     -2.4699992670    8.5563244560    0.0000000000     -0.0000000020    8.5563244560    0.0000000000
1     -2.4699992670    8.5563244560    0.0000000000     -3.7049989000   10.6954055700    0.0000000000
1     -3.7049989000   10.6954055700    0.0000000000     -1.2349996350   10.6954055700    0.0000000000
1     -3.7049989000   10.6954055700    0.0000000000     -4.9399985330   12.8344866840    0.0000000000
1     -4.9399985330   12.8344866840    0.0000000000     -2.4699992680   12.8344866840    0.0000000000
1      4.9399985300    0.0000000000    0.0000000000      7.4099977950    0.0000000000    0.0000000000
1      4.9399985300    0.0000000000    0.0000000000      3.7049988970    2.1390811140    0.0000000000
1      3.7049988970    2.1390811140    0.0000000000      6.1749981620    2.1390811140    0.0000000000
1      3.7049988970    2.1390811140    0.0000000000      2.4699992640    4.2781622280    0.0000000000
1      2.4699992640    4.2781622280    0.0000000000      4.9399985290    4.2781622280    0.0000000000
1      2.4699992640    4.2781622280    0.0000000000      1.2349996310    6.4172433420    0.0000000000
1      1.2349996310    6.4172433420    0.0000000000      3.7049988960    6.4172433420    0.0000000000
1      1.2349996310    6.4172433420    0.0000000000     -0.0000000020    8.5563244560    0.0000000000
1     -0.0000000020    8.5563244560    0.0000000000      2.4699992630    8.5563244560    0.0000000000
1     -0.0000000020    8.5563244560    0.0000000000     -1.2349996350   10.6954055700    0.0000000000
1     -1.2349996350   10.6954055700    0.0000000000      1.2349996300   10.6954055700    0.0000000000
1     -1.2349996350   10.6954055700    0.0000000000     -2.4699992680   12.8344866840    0.0000000000
1     -2.4699992680   12.8344866840    0.0000000000     -0.0000000030   12.8344866840    0.0000000000
1      7.4099977950    0.0000000000    0.0000000000      9.8799970600    0.0000000000    0.0000000000
1      7.4099977950    0.0000000000    0.0000000000      6.1749981620    2.1390811140    0.0000000000
1      6.1749981620    2.1390811140    0.0000000000      8.6449974270    2.1390811140    0.0000000000
1      6.1749981620    2.1390811140    0.0000000000      4.9399985290    4.2781622280    0.0000000000
1      4.9399985290    4.2781622280    0.0000000000      7.4099977940    4.2781622280    0.0000000000
1      4.9399985290    4.2781622280    0.0000000000      3.7049988960    6.4172433420    0.0000000000
1      3.7049988960    6.4172433420    0.0000000000      6.1749981610    6.4172433420    0.0000000000
1      3.7049988960    6.4172433420    0.0000000000      2.4699992630    8.5563244560    0.0000000000
1      2.4699992630    8.5563244560    0.0000000000      4.9399985280    8.5563244560    0.0000000000
1      2.4699992630    8.5563244560    0.0000000000      1.2349996300   10.6954055700    0.0000000000
1      1.2349996300   10.6954055700    0.0000000000      3.7049988950   10.6954055700    0.0000000000
1      1.2349996300   10.6954055700    0.0000000000     -0.0000000030   12.8344866840    0.0000000000
1     -0.0000000030   12.8344866840    0.0000000000      2.4699992620   12.8344866840    0.0000000000
1      9.8799970600    0.0000000000    0.0000000000     12.3499963250    0.0000000000    0.0000000000
1      9.8799970600    0.0000000000    0.0000000000      8.6449974270    2.1390811140    0.0000000000
1      8.6449974270    2.1390811140    0.0000000000     11.1149966920    2.1390811140    0.0000000000
1      8.6449974270    2.1390811140    0.0000000000      7.4099977940    4.2781622280    0.0000000000
1      7.4099977940    4.2781622280    0.0000000000      9.8799970590    4.2781622280    0.0000000000
1      7.4099977940    4.2781622280    0.0000000000      6.1749981610    6.4172433420    0.0000000000
1      6.1749981610    6.4172433420    0.0000000000      8.6449974260    6.4172433420    0.0000000000
1      6.1749981610    6.4172433420    0.0000000000      4.9399985280    8.5563244560    0.0000000000
1      4.9399985280    8.5563244560    0.0000000000      7.4099977930    8.5563244560    0.0000000000
1      4.9399985280    8.5563244560    0.0000000000      3.7049988950   10.6954055700    0.0000000000
1      3.7049988950   10.6954055700    0.0000000000      6.1749981600   10.6954055700    0.0000000000
1      3.7049988950   10.6954055700    0.0000000000      2.4699992620   12.8344866840    0.0000000000
1      2.4699992620   12.8344866840    0.0000000000      4.9399985270   12.8344866840    0.0000000000
1     12.3499963250    0.0000000000    0.0000000000     14.8199955900    0.0000000000    0.0000000000
1     12.3499963250    0.0000000000    0.0000000000     11.1149966920    2.1390811140    0.0000000000
1     11.1149966920    2.1390811140    0.0000000000     13.5849959570    2.1390811140    0.0000000000
1     11.1149966920    2.1390811140    0.0000000000      9.8799970590    4.2781622280    0.0000000000
1      9.8799970590    4.2781622280    0.0000000000     12.3499963240    4.2781622280    0.0000000000
1      9.8799970590    4.2781622280    0.0000000000      8.6449974260    6.4172433420    0.0000000000
1      8.6449974260    6.4172433420    0.0000000000     11.1149966910    6.4172433420    0.0000000000
1      8.6449974260    6.4172433420    0.0000000000      7.4099977930    8.5563244560    0.0000000000
1      7.4099977930    8.5563244560    0.0000000000      9.8799970580    8.5563244560    0.0000000000
1      7.4099977930    8.5563244560    0.0000000000      6.1749981600   10.6954055700    0.0000000000
1      6.1749981600   10.6954055700    0.0000000000      8.6449974250   10.6954055700    0.0000000000
1      6.1749981600   10.6954055700    0.0000000000      4.9399985270   12.8344866840    0.0000000000
1      4.9399985270   12.8344866840    0.0000000000      7.4099977920   12.8344866840    0.0000000000
1     14.8199955900    0.0000000000    0.0000000000     13.5849959570    2.1390811140    0.0000000000
1     13.5849959570    2.1390811140    0.0000000000     12.3499963240    4.2781622280    0.0000000000
1     12.3499963240    4.2781622280    0.0000000000     11.1149966910    6.4172433420    0.0000000000
1     11.1149966910    6.4172433420    0.0000000000      9.8799970580    8.5563244560    0.0000000000
1      9.8799970580    8.5563244560    0.0000000000      8.6449974250   10.6954055700    0.0000000000
1      8.6449974250   10.6954055700    0.0000000000      7.4099977920   12.8344866840    0.0000000000
